Version 4
SHEET 1 880 680
WIRE 272 -160 256 -160
WIRE 192 -32 192 -160
WIRE 192 -32 32 -32
WIRE 272 -32 272 -160
WIRE 352 -32 272 -32
WIRE -112 160 -112 112
WIRE -64 160 -112 160
WIRE 32 160 32 -32
WIRE 32 160 0 160
WIRE 160 160 32 160
WIRE 208 160 160 160
WIRE 352 176 352 -32
WIRE 352 176 272 176
WIRE 400 176 352 176
WIRE 448 176 400 176
WIRE 160 192 128 192
WIRE 208 192 160 192
WIRE -432 208 -432 176
WIRE 224 224 160 224
WIRE 240 288 240 208
WIRE -112 304 -112 240
WIRE -432 416 -432 288
WIRE -272 416 -272 288
FLAG 240 288 0
FLAG -432 176 3.3V
FLAG 240 144 3.3V
FLAG -432 416 0
FLAG -272 416 0
FLAG -272 208 1.65V
FLAG 128 192 1.65V
FLAG -112 304 0
FLAG 160 224 3.3V
FLAG 400 176 Vout
FLAG -112 32 3.3V
FLAG 160 160 V-
FLAG 160 192 V+
SYMBOL voltage -432 192 R0
WINDOW 123 0 0 Left 0
WINDOW 39 0 0 Left 0
SYMATTR InstName V1
SYMATTR Value 3.3
SYMBOL current -112 32 R0
WINDOW 123 0 0 Left 0
WINDOW 39 0 0 Left 0
SYMATTR InstName I1
SYMATTR Value SINE(0 3u 10k)
SYMBOL voltage -272 192 R0
WINDOW 123 0 0 Left 0
WINDOW 39 0 0 Left 0
SYMATTR InstName V2
SYMATTR Value 1.65
SYMBOL res 288 -48 R90
WINDOW 0 0 56 VBottom 2
WINDOW 3 32 56 VTop 2
SYMATTR InstName R1
SYMATTR Value 220k
SYMBOL cap 256 -176 R90
WINDOW 0 0 32 VBottom 2
WINDOW 3 32 32 VTop 2
SYMATTR InstName C1
SYMATTR Value 22p
SYMBOL cap 0 144 R90
WINDOW 0 0 32 VBottom 2
WINDOW 3 32 32 VTop 2
SYMATTR InstName C2
SYMATTR Value 0.01µ
SYMBOL res -128 144 R0
SYMATTR InstName R2
SYMATTR Value 100k
SYMBOL NJR\\nju7098 240 112 R0
SYMATTR InstName U1
SYMATTR Value nju7098a_s
TEXT 16 280 Left 2 !.tran 2ms
